/*--------------------------------*- C++ -*----------------------------------*\
| =========                 |                                                 |
| \\      /  F ield         | OpenFOAM: The Open Source CFD Toolbox           |
|  \\    /   O peration     | Version:  v2512                                 |
|   \\  /    A nd           | Website:  www.openfoam.com                      |
|    \\/     M anipulation  |                                                 |
\*---------------------------------------------------------------------------*/
FoamFile
{
    version     2.0;
    format      ascii;
    class       dictionary;
    object      fvSchemes;
}
// * * * * * * * * * * * * * * * * * * * * * * * * * * * * * * * * * * * * * //

fluxScheme          Kurganov;

ddtSchemes
{
    default         Euler;
}

gradSchemes
{
    default         Gauss linear;

    // Limit the velocity/turbulence gradients: unlimited grad(U) overshoots
    // at the bow/fin shocks and detonates the kOmegaSST production term.
    grad(U)         cellLimited Gauss linear 1;
    grad(k)         cellLimited Gauss linear 1;
    grad(omega)     cellLimited Gauss linear 1;
}

divSchemes
{
    default         none;

    div(tauMC)      Gauss linear;
    div(phi,k)      bounded Gauss upwind;
    div(phi,omega)  bounded Gauss upwind;
}

laplacianSchemes
{
    // limited 0.5 instead of fully corrected: max mesh non-orthogonality is
    // ~63 deg, where the explicit non-orthogonal correction can over-shoot.
    default         Gauss linear limited 0.5;
}

interpolationSchemes
{
    default         linear;

    reconstruct(rho) vanLeer;
    reconstruct(U)  vanLeerV;
    reconstruct(T)  vanLeer;
}

snGradSchemes
{
    default         limited 0.5;
}

wallDist
{
    method          meshWave;
}


// ************************************************************************* //
