FoamFile { version 2.0; format ascii; class dictionary; object decomposeParDict; }

numberOfSubdomains  8;  // match your core count
method              scotch;
